Version 4
SHEET 1 4132 804
WIRE 2128 -784 2128 -800
WIRE 2176 -784 2128 -784
WIRE 2176 -768 2176 -784
WIRE 1296 -752 1296 -784
WIRE 1440 -752 1440 -784
WIRE 1584 -752 1584 -784
WIRE 1760 -752 1760 -784
WIRE 1952 -752 1952 -784
WIRE 1424 -368 1280 -368
WIRE 1632 -368 1488 -368
WIRE 1664 -368 1632 -368
WIRE 2496 -320 2352 -320
WIRE 2704 -320 2560 -320
WIRE 2736 -320 2704 -320
WIRE 832 -240 768 -240
WIRE 1280 -240 1280 -368
WIRE 1280 -240 1104 -240
WIRE 1408 -240 1280 -240
WIRE 1600 -224 1456 -224
WIRE 832 -208 832 -240
WIRE 1104 -208 1104 -240
WIRE 1408 -208 1408 -240
WIRE 1600 -192 1600 -224
WIRE 1632 -192 1632 -368
WIRE 1632 -192 1600 -192
WIRE 1904 -192 1632 -192
WIRE 2352 -192 2352 -320
WIRE 2352 -192 2176 -192
WIRE 2480 -192 2352 -192
WIRE 2672 -176 2528 -176
WIRE 1904 -160 1904 -192
WIRE 2176 -160 2176 -192
WIRE 2480 -160 2480 -192
WIRE 1408 -144 1408 -160
WIRE 1408 -144 1312 -144
WIRE 2672 -144 2672 -176
WIRE 2704 -144 2704 -320
WIRE 2704 -144 2672 -144
WIRE 2768 -144 2704 -144
WIRE 3072 -144 3056 -144
WIRE 832 -96 832 -128
WIRE 928 -96 832 -96
WIRE 1104 -96 1104 -128
WIRE 1104 -96 992 -96
WIRE 2480 -96 2480 -112
WIRE 2480 -96 2384 -96
WIRE 3056 -96 3056 -144
WIRE 3152 -96 3056 -96
WIRE 3344 -96 3312 -96
WIRE 1904 -48 1904 -80
WIRE 2000 -48 1904 -48
WIRE 2176 -48 2176 -80
WIRE 2176 -48 2064 -48
WIRE 3152 -48 3120 -48
WIRE 832 -32 832 -96
WIRE 1104 -32 1104 -96
WIRE 2896 0 2896 -16
WIRE 3120 0 3120 -48
WIRE 1904 16 1904 -48
WIRE 2176 16 2176 -48
WIRE 2768 304 2768 288
WIRE 832 320 832 48
WIRE 1904 320 1904 96
WIRE 1904 320 832 320
WIRE 2672 320 1904 320
WIRE 2736 320 2672 320
WIRE 3056 320 3056 -96
WIRE 3056 320 2800 320
WIRE 2768 368 2768 336
FLAG 1296 -752 0
FLAG 1760 -752 0
FLAG 1760 -864 phi1
FLAG 1440 -752 0
FLAG 1440 -864 Vdd
FLAG 1584 -752 0
FLAG 1584 -864 Vcm
FLAG 1296 -864 Vin
FLAG 1952 -752 0
FLAG 1952 -864 phi2
FLAG 2768 368 0
FLAG 2672 320 Vfb
FLAG 1312 -144 VCM
IOPIN 1312 -144 In
FLAG 2384 -96 VCM
IOPIN 2384 -96 In
FLAG 2896 -176 VDD
IOPIN 2896 -176 In
FLAG 2896 0 phi1
IOPIN 2896 0 In
FLAG 2768 -48 VCM
IOPIN 2768 -48 In
FLAG 3344 -96 vd
IOPIN 3344 -96 Out
FLAG 1664 -368 vx1
IOPIN 1664 -368 Out
FLAG 2736 -320 vx2
IOPIN 2736 -320 Out
FLAG 3120 0 phi1
IOPIN 3120 0 In
FLAG 3072 -144 vq
IOPIN 3072 -144 Out
FLAG 2768 288 VDD
IOPIN 2768 288 In
FLAG 784 -192 phi1
IOPIN 784 -192 In
FLAG 1056 -192 phi2
IOPIN 1056 -192 In
FLAG 1104 48 VCM
IOPIN 1104 48 In
FLAG 768 -240 vin
IOPIN 768 -240 In
FLAG 1056 -16 phi1
IOPIN 1056 -16 In
FLAG 784 -16 phi2
IOPIN 784 -16 In
FLAG 2128 -144 phi1
IOPIN 2128 -144 In
FLAG 1856 -144 phi2
IOPIN 1856 -144 In
FLAG 2176 96 VCM
IOPIN 2176 96 In
FLAG 1856 32 phi1
IOPIN 1856 32 In
FLAG 2128 32 phi2
IOPIN 2128 32 In
FLAG 2176 -768 0
FLAG 2128 -848 Vdd
FLAG 2176 -864 trip
FLAG 1456 -144 0
FLAG 2528 -96 0
FLAG 784 32 0
FLAG 784 -144 0
FLAG 1056 -144 0
FLAG 1056 32 0
FLAG 1856 -96 0
FLAG 1856 80 0
FLAG 2128 80 0
FLAG 2128 -96 0
SYMBOL voltage 1296 -880 R0
WINDOW 123 0 0 Left 2
WINDOW 39 0 0 Left 2
WINDOW 0 -96 20 Left 2
WINDOW 3 -209 104 Left 2
SYMATTR InstName Vin
SYMATTR Value SINE({Voff} {Vamp} {freq})
SYMBOL voltage 1760 -880 R0
WINDOW 0 36 42 Left 2
WINDOW 3 -52 207 VLeft 2
WINDOW 123 0 0 Left 2
WINDOW 39 0 0 Left 2
SYMATTR InstName Vphi1
SYMATTR Value PULSE(0V {VDD} 0 100n 100n 2u 4.5u)
SYMBOL voltage 1440 -880 R0
WINDOW 123 0 0 Left 2
WINDOW 39 0 0 Left 2
SYMATTR InstName VDD
SYMATTR Value {VDD}
SYMBOL cap 1488 -384 R90
WINDOW 0 0 32 VBottom 2
WINDOW 3 32 32 VTop 2
SYMATTR InstName Ci1
SYMATTR Value {Ci1}
SYMATTR SpiceLine ic=0V
SYMBOL voltage 1584 -880 R0
WINDOW 123 0 0 Left 2
WINDOW 39 0 0 Left 2
SYMATTR InstName VCM
SYMATTR Value {VCM}
SYMBOL voltage 1952 -880 R0
WINDOW 0 36 42 Left 2
WINDOW 3 -52 207 VLeft 2
WINDOW 123 0 0 Left 2
WINDOW 39 0 0 Left 2
SYMATTR InstName Vphi2
SYMATTR Value PULSE(0V {VDD} 2.25u 100n 100n 2u 4.5u)
SYMBOL cap 2560 -336 R90
WINDOW 0 0 32 VBottom 2
WINDOW 3 32 32 VTop 2
SYMATTR InstName Ci2
SYMATTR Value {Ci2}
SYMATTR SpiceLine ic=0V
SYMBOL INV 2800 352 M0
SYMATTR InstName X5
SYMBOL dflop 3232 -144 R0
SYMATTR InstName DFF
SYMBOL cap 992 -112 R90
WINDOW 0 0 32 VBottom 2
WINDOW 3 32 32 VTop 2
SYMATTR InstName CS1
SYMATTR Value {Cs1}
SYMBOL sw 832 -112 M180
WINDOW 3 24 -12 Left 2
WINDOW 38 39 37 Left 2
WINDOW 0 35 82 Left 2
SYMATTR Value ""
SYMATTR SpiceModel switch
SYMATTR InstName S1
SYMBOL sw 832 64 M180
WINDOW 3 24 -12 Left 2
WINDOW 38 39 37 Left 2
WINDOW 0 35 82 Left 2
SYMATTR Value ""
SYMATTR SpiceModel switch
SYMATTR InstName S2
SYMBOL sw 1104 -112 M180
WINDOW 3 24 -12 Left 2
WINDOW 38 39 37 Left 2
WINDOW 0 35 82 Left 2
SYMATTR Value ""
SYMATTR SpiceModel switch
SYMATTR InstName S3
SYMBOL sw 1104 64 M180
WINDOW 3 24 -12 Left 2
WINDOW 38 39 37 Left 2
WINDOW 0 35 82 Left 2
SYMATTR Value ""
SYMATTR SpiceModel switch
SYMATTR InstName S4
SYMBOL cap 2064 -64 R90
WINDOW 0 0 32 VBottom 2
WINDOW 3 32 32 VTop 2
SYMATTR InstName CS2
SYMATTR Value {Cs2}
SYMBOL sw 1904 -64 M180
WINDOW 3 24 -12 Left 2
WINDOW 38 39 37 Left 2
WINDOW 0 35 82 Left 2
SYMATTR Value ""
SYMATTR SpiceModel switch
SYMATTR InstName S5
SYMBOL sw 1904 112 M180
WINDOW 3 24 -12 Left 2
WINDOW 38 39 37 Left 2
WINDOW 0 35 82 Left 2
SYMATTR Value ""
SYMATTR SpiceModel switch
SYMATTR InstName S6
SYMBOL sw 2176 -64 M180
WINDOW 3 24 -12 Left 2
WINDOW 38 39 37 Left 2
WINDOW 0 35 82 Left 2
SYMATTR Value ""
SYMATTR SpiceModel switch
SYMATTR InstName S7
SYMBOL sw 2176 112 M180
WINDOW 3 24 -12 Left 2
WINDOW 38 39 37 Left 2
WINDOW 0 35 82 Left 2
SYMATTR Value ""
SYMATTR SpiceModel switch
SYMATTR InstName S8
SYMBOL e 2176 -880 R0
WINDOW 0 39 37 Left 2
WINDOW 3 38 79 Left 2
SYMATTR InstName Etrip1
SYMATTR Value 0.5
SYMBOL g2 1456 -240 R0
SYMATTR InstName G1
SYMATTR Value 5.7e-06
SYMBOL g2 2528 -192 R0
SYMATTR InstName G2
SYMATTR Value 5.7e-06
SYMBOL Ideal_clocked_comparator 2816 -96 R0
SYMATTR InstName X1
TEXT 2464 -760 Left 2 !.tran 1u 20m
TEXT 2456 -856 Left 2 !.options plotwinsize=0
TEXT 2448 -1128 Left 2 !.param VDD=1.5\n.param Vref=1.5\n.param Vcm=VDD/2.0\n.param Voff=0\n.param Vamp=1.4\n.param freq=80\n.param Cs1=0.3p Ci1=2.1p Cs2=0.2p Ci2=0.7p
TEXT 2464 -704 Left 2 !.save v(vx1) v(vx2) v(phi1) v(phi2) v(vq) v(vd) v(vfb) v(vin)
TEXT 2464 -728 Left 2 ;Save only node voltages of interest
TEXT 2456 -888 Left 2 !.model switch sw ron=.1
TEXT 2104 -728 Left 2 ;Switch control
TEXT 2624 -760 Left 2 ;10 periods for a better FFT
